* NGSPICE file created from Timer_PWM_Generator.ext - technology: sky130A

* Black-box entry subcircuit for sky130_fd_sc_hd__fill_1 abstract view
.subckt sky130_fd_sc_hd__fill_1 VGND VNB VPB VPWR
.ends

* Black-box entry subcircuit for sky130_ef_sc_hd__decap_12 abstract view
.subckt sky130_ef_sc_hd__decap_12 VPWR VGND VPB VNB
.ends

* Black-box entry subcircuit for sky130_fd_sc_hd__decap_6 abstract view
.subckt sky130_fd_sc_hd__decap_6 VGND VNB VPB VPWR
.ends

* Black-box entry subcircuit for sky130_fd_sc_hd__decap_8 abstract view
.subckt sky130_fd_sc_hd__decap_8 VGND VNB VPB VPWR
.ends

* Black-box entry subcircuit for sky130_fd_sc_hd__o21a_1 abstract view
.subckt sky130_fd_sc_hd__o21a_1 A1 A2 B1 VGND VNB VPB VPWR X
.ends

* Black-box entry subcircuit for sky130_fd_sc_hd__nand2_1 abstract view
.subckt sky130_fd_sc_hd__nand2_1 A B VGND VNB VPB VPWR Y
.ends

* Black-box entry subcircuit for sky130_fd_sc_hd__tapvpwrvgnd_1 abstract view
.subckt sky130_fd_sc_hd__tapvpwrvgnd_1 VGND VPWR
.ends

* Black-box entry subcircuit for sky130_fd_sc_hd__inv_2 abstract view
.subckt sky130_fd_sc_hd__inv_2 A VGND VNB VPB VPWR Y
.ends

* Black-box entry subcircuit for sky130_fd_sc_hd__a21o_1 abstract view
.subckt sky130_fd_sc_hd__a21o_1 A1 A2 B1 VGND VNB VPB VPWR X
.ends

* Black-box entry subcircuit for sky130_fd_sc_hd__and4b_1 abstract view
.subckt sky130_fd_sc_hd__and4b_1 A_N B C D VGND VNB VPB VPWR X
.ends

* Black-box entry subcircuit for sky130_fd_sc_hd__decap_3 abstract view
.subckt sky130_fd_sc_hd__decap_3 VGND VNB VPB VPWR
.ends

* Black-box entry subcircuit for sky130_fd_sc_hd__decap_4 abstract view
.subckt sky130_fd_sc_hd__decap_4 VGND VNB VPB VPWR
.ends

* Black-box entry subcircuit for sky130_fd_sc_hd__fill_2 abstract view
.subckt sky130_fd_sc_hd__fill_2 VGND VNB VPB VPWR
.ends

* Black-box entry subcircuit for sky130_fd_sc_hd__and4_1 abstract view
.subckt sky130_fd_sc_hd__and4_1 A B C D VGND VNB VPB VPWR X
.ends

* Black-box entry subcircuit for sky130_fd_sc_hd__xnor2_1 abstract view
.subckt sky130_fd_sc_hd__xnor2_1 A B VGND VNB VPB VPWR Y
.ends

* Black-box entry subcircuit for sky130_fd_sc_hd__dfrtp_1 abstract view
.subckt sky130_fd_sc_hd__dfrtp_1 CLK D RESET_B VGND VNB VPB VPWR Q
.ends

* Black-box entry subcircuit for sky130_fd_sc_hd__mux2_1 abstract view
.subckt sky130_fd_sc_hd__mux2_1 A0 A1 S VGND VNB VPB VPWR X
.ends

* Black-box entry subcircuit for sky130_fd_sc_hd__xor2_1 abstract view
.subckt sky130_fd_sc_hd__xor2_1 A B VGND VNB VPB VPWR X
.ends

* Black-box entry subcircuit for sky130_fd_sc_hd__and2_1 abstract view
.subckt sky130_fd_sc_hd__and2_1 A B VGND VNB VPB VPWR X
.ends

* Black-box entry subcircuit for sky130_fd_sc_hd__nor3b_1 abstract view
.subckt sky130_fd_sc_hd__nor3b_1 A B C_N VGND VNB VPB VPWR Y
.ends

* Black-box entry subcircuit for sky130_fd_sc_hd__or4_1 abstract view
.subckt sky130_fd_sc_hd__or4_1 A B C D VGND VNB VPB VPWR X
.ends

* Black-box entry subcircuit for sky130_fd_sc_hd__o22a_1 abstract view
.subckt sky130_fd_sc_hd__o22a_1 A1 A2 B1 B2 VGND VNB VPB VPWR X
.ends

* Black-box entry subcircuit for sky130_fd_sc_hd__and2b_1 abstract view
.subckt sky130_fd_sc_hd__and2b_1 A_N B VGND VNB VPB VPWR X
.ends

* Black-box entry subcircuit for sky130_fd_sc_hd__dfrtp_4 abstract view
.subckt sky130_fd_sc_hd__dfrtp_4 CLK D RESET_B VGND VNB VPB VPWR Q
.ends

* Black-box entry subcircuit for sky130_fd_sc_hd__a22o_1 abstract view
.subckt sky130_fd_sc_hd__a22o_1 A1 A2 B1 B2 VGND VNB VPB VPWR X
.ends

* Black-box entry subcircuit for sky130_fd_sc_hd__and3b_1 abstract view
.subckt sky130_fd_sc_hd__and3b_1 A_N B C VGND VNB VPB VPWR X
.ends

* Black-box entry subcircuit for sky130_fd_sc_hd__o21ai_1 abstract view
.subckt sky130_fd_sc_hd__o21ai_1 A1 A2 B1 VGND VNB VPB VPWR Y
.ends

* Black-box entry subcircuit for sky130_fd_sc_hd__clkbuf_16 abstract view
.subckt sky130_fd_sc_hd__clkbuf_16 A VGND VNB VPB VPWR X
.ends

* Black-box entry subcircuit for sky130_fd_sc_hd__o2bb2a_1 abstract view
.subckt sky130_fd_sc_hd__o2bb2a_1 A1_N A2_N B1 B2 VGND VNB VPB VPWR X
.ends

* Black-box entry subcircuit for sky130_fd_sc_hd__or3_1 abstract view
.subckt sky130_fd_sc_hd__or3_1 A B C VGND VNB VPB VPWR X
.ends

* Black-box entry subcircuit for sky130_fd_sc_hd__o211a_1 abstract view
.subckt sky130_fd_sc_hd__o211a_1 A1 A2 B1 C1 VGND VNB VPB VPWR X
.ends

* Black-box entry subcircuit for sky130_fd_sc_hd__or3b_1 abstract view
.subckt sky130_fd_sc_hd__or3b_1 A B C_N VGND VNB VPB VPWR X
.ends

* Black-box entry subcircuit for sky130_fd_sc_hd__a221o_1 abstract view
.subckt sky130_fd_sc_hd__a221o_1 A1 A2 B1 B2 C1 VGND VNB VPB VPWR X
.ends

* Black-box entry subcircuit for sky130_fd_sc_hd__a31o_1 abstract view
.subckt sky130_fd_sc_hd__a31o_1 A1 A2 A3 B1 VGND VNB VPB VPWR X
.ends

* Black-box entry subcircuit for sky130_fd_sc_hd__o221a_1 abstract view
.subckt sky130_fd_sc_hd__o221a_1 A1 A2 B1 B2 C1 VGND VNB VPB VPWR X
.ends

* Black-box entry subcircuit for sky130_fd_sc_hd__nand2b_1 abstract view
.subckt sky130_fd_sc_hd__nand2b_1 A_N B VGND VNB VPB VPWR Y
.ends

* Black-box entry subcircuit for sky130_fd_sc_hd__or2_1 abstract view
.subckt sky130_fd_sc_hd__or2_1 A B VGND VNB VPB VPWR X
.ends

* Black-box entry subcircuit for sky130_fd_sc_hd__o21ba_1 abstract view
.subckt sky130_fd_sc_hd__o21ba_1 A1 A2 B1_N VGND VNB VPB VPWR X
.ends

* Black-box entry subcircuit for sky130_fd_sc_hd__a21boi_1 abstract view
.subckt sky130_fd_sc_hd__a21boi_1 A1 A2 B1_N VGND VNB VPB VPWR Y
.ends

* Black-box entry subcircuit for sky130_fd_sc_hd__o32a_1 abstract view
.subckt sky130_fd_sc_hd__o32a_1 A1 A2 A3 B1 B2 VGND VNB VPB VPWR X
.ends

* Black-box entry subcircuit for sky130_fd_sc_hd__o31a_1 abstract view
.subckt sky130_fd_sc_hd__o31a_1 A1 A2 A3 B1 VGND VNB VPB VPWR X
.ends

* Black-box entry subcircuit for sky130_fd_sc_hd__or4b_1 abstract view
.subckt sky130_fd_sc_hd__or4b_1 A B C D_N VGND VNB VPB VPWR X
.ends

* Black-box entry subcircuit for sky130_fd_sc_hd__o32ai_1 abstract view
.subckt sky130_fd_sc_hd__o32ai_1 A1 A2 A3 B1 B2 VGND VNB VPB VPWR Y
.ends

* Black-box entry subcircuit for sky130_fd_sc_hd__nor2_1 abstract view
.subckt sky130_fd_sc_hd__nor2_1 A B VGND VNB VPB VPWR Y
.ends

* Black-box entry subcircuit for sky130_fd_sc_hd__and3_1 abstract view
.subckt sky130_fd_sc_hd__and3_1 A B C VGND VNB VPB VPWR X
.ends

* Black-box entry subcircuit for sky130_fd_sc_hd__inv_8 abstract view
.subckt sky130_fd_sc_hd__inv_8 A VGND VNB VPB VPWR Y
.ends

* Black-box entry subcircuit for sky130_fd_sc_hd__or4bb_1 abstract view
.subckt sky130_fd_sc_hd__or4bb_1 A B C_N D_N VGND VNB VPB VPWR X
.ends

* Black-box entry subcircuit for sky130_fd_sc_hd__dfrtp_2 abstract view
.subckt sky130_fd_sc_hd__dfrtp_2 CLK D RESET_B VGND VNB VPB VPWR Q
.ends

* Black-box entry subcircuit for sky130_fd_sc_hd__a211o_1 abstract view
.subckt sky130_fd_sc_hd__a211o_1 A1 A2 B1 C1 VGND VNB VPB VPWR X
.ends

* Black-box entry subcircuit for sky130_fd_sc_hd__a21oi_1 abstract view
.subckt sky130_fd_sc_hd__a21oi_1 A1 A2 B1 VGND VNB VPB VPWR Y
.ends

* Black-box entry subcircuit for sky130_fd_sc_hd__clkinv_8 abstract view
.subckt sky130_fd_sc_hd__clkinv_8 A VGND VNB VPB VPWR Y
.ends

* Black-box entry subcircuit for sky130_fd_sc_hd__a2bb2o_1 abstract view
.subckt sky130_fd_sc_hd__a2bb2o_1 A1_N A2_N B1 B2 VGND VNB VPB VPWR X
.ends

* Black-box entry subcircuit for sky130_fd_sc_hd__inv_12 abstract view
.subckt sky130_fd_sc_hd__inv_12 A VGND VNB VPB VPWR Y
.ends

* Black-box entry subcircuit for sky130_fd_sc_hd__o221ai_2 abstract view
.subckt sky130_fd_sc_hd__o221ai_2 A1 A2 B1 B2 C1 VGND VNB VPB VPWR Y
.ends

* Black-box entry subcircuit for sky130_fd_sc_hd__o22ai_1 abstract view
.subckt sky130_fd_sc_hd__o22ai_1 A1 A2 B1 B2 VGND VNB VPB VPWR Y
.ends

* Black-box entry subcircuit for sky130_fd_sc_hd__clkinv_4 abstract view
.subckt sky130_fd_sc_hd__clkinv_4 A VGND VNB VPB VPWR Y
.ends

* Black-box entry subcircuit for sky130_fd_sc_hd__a311o_1 abstract view
.subckt sky130_fd_sc_hd__a311o_1 A1 A2 A3 B1 C1 VGND VNB VPB VPWR X
.ends

* Black-box entry subcircuit for sky130_fd_sc_hd__inv_6 abstract view
.subckt sky130_fd_sc_hd__inv_6 A VGND VNB VPB VPWR Y
.ends

* Black-box entry subcircuit for sky130_fd_sc_hd__clkbuf_2 abstract view
.subckt sky130_fd_sc_hd__clkbuf_2 A VGND VNB VPB VPWR X
.ends

* Black-box entry subcircuit for sky130_fd_sc_hd__dlymetal6s2s_1 abstract view
.subckt sky130_fd_sc_hd__dlymetal6s2s_1 A VGND VNB VPB VPWR X
.ends

* Black-box entry subcircuit for sky130_fd_sc_hd__a22o_2 abstract view
.subckt sky130_fd_sc_hd__a22o_2 A1 A2 B1 B2 VGND VNB VPB VPWR X
.ends

* Black-box entry subcircuit for sky130_fd_sc_hd__o2111a_1 abstract view
.subckt sky130_fd_sc_hd__o2111a_1 A1 A2 B1 C1 D1 VGND VNB VPB VPWR X
.ends

* Black-box entry subcircuit for sky130_fd_sc_hd__a221oi_1 abstract view
.subckt sky130_fd_sc_hd__a221oi_1 A1 A2 B1 B2 C1 VGND VNB VPB VPWR Y
.ends

* Black-box entry subcircuit for sky130_fd_sc_hd__buf_1 abstract view
.subckt sky130_fd_sc_hd__buf_1 A VGND VNB VPB VPWR X
.ends

* Black-box entry subcircuit for sky130_fd_sc_hd__o22a_4 abstract view
.subckt sky130_fd_sc_hd__o22a_4 A1 A2 B1 B2 VGND VNB VPB VPWR X
.ends

* Black-box entry subcircuit for sky130_fd_sc_hd__a21bo_1 abstract view
.subckt sky130_fd_sc_hd__a21bo_1 A1 A2 B1_N VGND VNB VPB VPWR X
.ends

* Black-box entry subcircuit for sky130_fd_sc_hd__nor3_1 abstract view
.subckt sky130_fd_sc_hd__nor3_1 A B C VGND VNB VPB VPWR Y
.ends

* Black-box entry subcircuit for sky130_fd_sc_hd__a32o_1 abstract view
.subckt sky130_fd_sc_hd__a32o_1 A1 A2 A3 B1 B2 VGND VNB VPB VPWR X
.ends

* Black-box entry subcircuit for sky130_fd_sc_hd__buf_2 abstract view
.subckt sky130_fd_sc_hd__buf_2 A VGND VNB VPB VPWR X
.ends

* Black-box entry subcircuit for sky130_fd_sc_hd__nand3b_1 abstract view
.subckt sky130_fd_sc_hd__nand3b_1 A_N B C VGND VNB VPB VPWR Y
.ends

* Black-box entry subcircuit for sky130_fd_sc_hd__o21ba_4 abstract view
.subckt sky130_fd_sc_hd__o21ba_4 A1 A2 B1_N VGND VNB VPB VPWR X
.ends

* Black-box entry subcircuit for sky130_fd_sc_hd__clkbuf_1 abstract view
.subckt sky130_fd_sc_hd__clkbuf_1 A VGND VNB VPB VPWR X
.ends

* Black-box entry subcircuit for sky130_fd_sc_hd__o21bai_1 abstract view
.subckt sky130_fd_sc_hd__o21bai_1 A1 A2 B1_N VGND VNB VPB VPWR Y
.ends

* Black-box entry subcircuit for sky130_fd_sc_hd__xnor2_2 abstract view
.subckt sky130_fd_sc_hd__xnor2_2 A B VGND VNB VPB VPWR Y
.ends

* Black-box entry subcircuit for sky130_fd_sc_hd__a311oi_1 abstract view
.subckt sky130_fd_sc_hd__a311oi_1 A1 A2 A3 B1 C1 VGND VNB VPB VPWR Y
.ends

* Black-box entry subcircuit for sky130_fd_sc_hd__diode_2 abstract view
.subckt sky130_fd_sc_hd__diode_2 DIODE VGND VNB VPB VPWR
.ends

* Black-box entry subcircuit for sky130_fd_sc_hd__a211oi_1 abstract view
.subckt sky130_fd_sc_hd__a211oi_1 A1 A2 B1 C1 VGND VNB VPB VPWR Y
.ends

.subckt Timer_PWM_Generator PWM_CNTA[0] PWM_CNTA[10] PWM_CNTA[11] PWM_CNTA[12] PWM_CNTA[13]
+ PWM_CNTA[14] PWM_CNTA[15] PWM_CNTA[16] PWM_CNTA[17] PWM_CNTA[18] PWM_CNTA[19] PWM_CNTA[1]
+ PWM_CNTA[20] PWM_CNTA[21] PWM_CNTA[22] PWM_CNTA[23] PWM_CNTA[24] PWM_CNTA[25] PWM_CNTA[26]
+ PWM_CNTA[27] PWM_CNTA[28] PWM_CNTA[29] PWM_CNTA[2] PWM_CNTA[30] PWM_CNTA[31] PWM_CNTA[3]
+ PWM_CNTA[4] PWM_CNTA[5] PWM_CNTA[6] PWM_CNTA[7] PWM_CNTA[8] PWM_CNTA[9] PWM_CNTB[0]
+ PWM_CNTB[10] PWM_CNTB[11] PWM_CNTB[12] PWM_CNTB[13] PWM_CNTB[14] PWM_CNTB[15] PWM_CNTB[16]
+ PWM_CNTB[17] PWM_CNTB[18] PWM_CNTB[19] PWM_CNTB[1] PWM_CNTB[20] PWM_CNTB[21] PWM_CNTB[22]
+ PWM_CNTB[23] PWM_CNTB[24] PWM_CNTB[25] PWM_CNTB[26] PWM_CNTB[27] PWM_CNTB[28] PWM_CNTB[29]
+ PWM_CNTB[2] PWM_CNTB[30] PWM_CNTB[31] PWM_CNTB[3] PWM_CNTB[4] PWM_CNTB[5] PWM_CNTB[6]
+ PWM_CNTB[7] PWM_CNTB[8] PWM_CNTB[9] PWM_OUTA PWM_OUTB TIMER_TOP[0] TIMER_TOP[10]
+ TIMER_TOP[11] TIMER_TOP[12] TIMER_TOP[13] TIMER_TOP[14] TIMER_TOP[15] TIMER_TOP[16]
+ TIMER_TOP[17] TIMER_TOP[18] TIMER_TOP[19] TIMER_TOP[1] TIMER_TOP[20] TIMER_TOP[21]
+ TIMER_TOP[22] TIMER_TOP[23] TIMER_TOP[24] TIMER_TOP[25] TIMER_TOP[26] TIMER_TOP[27]
+ TIMER_TOP[28] TIMER_TOP[29] TIMER_TOP[2] TIMER_TOP[30] TIMER_TOP[31] TIMER_TOP[3]
+ TIMER_TOP[4] TIMER_TOP[5] TIMER_TOP[6] TIMER_TOP[7] TIMER_TOP[8] TIMER_TOP[9] TMR_MODE[0]
+ TMR_MODE[1] TMR_SRC[0] TMR_SRC[1] VGND VPWR clk reset timer_interrupt
XFILLER_22_155 VGND VGND VPWR VPWR sky130_fd_sc_hd__fill_1
XFILLER_22_166 VPWR VGND VPWR VGND sky130_ef_sc_hd__decap_12
XFILLER_22_188 VGND VGND VPWR VPWR sky130_fd_sc_hd__fill_1
XFILLER_45_236 VGND VGND VPWR VPWR sky130_fd_sc_hd__decap_6
XFILLER_45_225 VGND VGND VPWR VPWR sky130_fd_sc_hd__decap_8
XFILLER_13_111 VGND VGND VPWR VPWR sky130_fd_sc_hd__fill_1
XFILLER_26_41 VPWR VGND VPWR VGND sky130_ef_sc_hd__decap_12
XFILLER_26_74 VGND VGND VPWR VPWR sky130_fd_sc_hd__decap_8
XFILLER_26_85 VPWR VGND VPWR VGND sky130_ef_sc_hd__decap_12
XFILLER_42_40 VPWR VGND VPWR VGND sky130_ef_sc_hd__decap_12
XFILLER_9_137 VGND VGND VPWR VPWR sky130_fd_sc_hd__fill_1
X_1270_ _0612_ _0650_ _0655_ VGND VGND VPWR VPWR _0731_ sky130_fd_sc_hd__o21a_1
XFILLER_51_217 VGND VGND VPWR VPWR sky130_fd_sc_hd__decap_6
X_1606_ _0477_ net18 VGND VGND VPWR VPWR _0276_ sky130_fd_sc_hd__nand2_1
XTAP_TAPCELL_ROW_14_183 VGND VPWR sky130_fd_sc_hd__tapvpwrvgnd_1
X_0985_ net71 VGND VGND VPWR VPWR _0463_ sky130_fd_sc_hd__inv_2
X_1468_ fast_pwm_inst.pwm_counter\[22\] _0888_ VGND VGND VPWR VPWR _0890_ sky130_fd_sc_hd__nand2_1
X_1399_ net85 _0474_ _0786_ VGND VGND VPWR VPWR _0843_ sky130_fd_sc_hd__a21o_1
X_1537_ _0937_ _0205_ _0206_ _0207_ VGND VGND VPWR VPWR _0208_ sky130_fd_sc_hd__and4b_1
XFILLER_42_217 VGND VGND VPWR VPWR sky130_fd_sc_hd__decap_3
XTAP_TAPCELL_ROW_37_297 VGND VPWR sky130_fd_sc_hd__tapvpwrvgnd_1
XFILLER_27_269 VGND VGND VPWR VPWR sky130_fd_sc_hd__decap_4
XFILLER_27_203 VGND VGND VPWR VPWR sky130_fd_sc_hd__fill_2
XFILLER_10_114 VGND VGND VPWR VPWR sky130_fd_sc_hd__decap_3
XTAP_TAPCELL_ROW_28_253 VGND VPWR sky130_fd_sc_hd__tapvpwrvgnd_1
XTAP_TAPCELL_ROW_11_164 VGND VPWR sky130_fd_sc_hd__tapvpwrvgnd_1
X_1322_ normal_mode_inst.timer_cnt\[7\] normal_mode_inst.timer_cnt\[9\] normal_mode_inst.timer_cnt\[8\]
+ _0765_ VGND VGND VPWR VPWR _0767_ sky130_fd_sc_hd__and4_1
X_1253_ _0676_ _0713_ VGND VGND VPWR VPWR _0720_ sky130_fd_sc_hd__xnor2_1
XPHY_EDGE_ROW_20_Left_72 VGND VGND VPWR VPWR sky130_fd_sc_hd__decap_3
X_1184_ _0659_ _0660_ VGND VGND VPWR VPWR _0661_ sky130_fd_sc_hd__nand2_1
XFILLER_24_206 VGND VGND VPWR VPWR sky130_fd_sc_hd__decap_6
XFILLER_32_250 VGND VGND VPWR VPWR sky130_fd_sc_hd__fill_2
X_0968_ phase_pwm_inst.counter\[4\] VGND VGND VPWR VPWR _0447_ sky130_fd_sc_hd__inv_2
XTAP_TAPCELL_ROW_2_121 VGND VPWR sky130_fd_sc_hd__tapvpwrvgnd_1
XFILLER_15_228 VGND VGND VPWR VPWR sky130_fd_sc_hd__decap_8
XFILLER_23_261 VGND VGND VPWR VPWR sky130_fd_sc_hd__decap_3
XTAP_TAPCELL_ROW_25_234 VGND VPWR sky130_fd_sc_hd__tapvpwrvgnd_1
XFILLER_0_57 VGND VGND VPWR VPWR sky130_fd_sc_hd__decap_8
XFILLER_0_79 VGND VGND VPWR VPWR sky130_fd_sc_hd__decap_4
X_1871_ net99 VGND VGND VPWR VPWR _0156_ sky130_fd_sc_hd__inv_2
X_1940_ clknet_3_7__leaf_clk _0050_ _0123_ VGND VGND VPWR VPWR normal_mode_inst.timer_cnt\[20\]
+ sky130_fd_sc_hd__dfrtp_1
XFILLER_14_283 VGND VGND VPWR VPWR sky130_fd_sc_hd__fill_1
XTAP_TAPCELL_ROW_39_304 VGND VPWR sky130_fd_sc_hd__tapvpwrvgnd_1
X_1305_ _0755_ phase_pwm_inst.counter\[5\] _0616_ VGND VGND VPWR VPWR _0177_ sky130_fd_sc_hd__mux2_1
X_1236_ _0683_ _0705_ VGND VGND VPWR VPWR _0708_ sky130_fd_sc_hd__xnor2_1
XFILLER_44_19 VGND VGND VPWR VPWR sky130_fd_sc_hd__decap_8
X_1167_ phase_pwm_inst.counter\[10\] phase_pwm_inst.direction VGND VGND VPWR VPWR
+ _0644_ sky130_fd_sc_hd__xor2_1
X_1098_ _0571_ _0574_ VGND VGND VPWR VPWR _0575_ sky130_fd_sc_hd__and2_1
XFILLER_34_85 VGND VGND VPWR VPWR sky130_fd_sc_hd__fill_1
XFILLER_7_202 VGND VGND VPWR VPWR sky130_fd_sc_hd__decap_3
XFILLER_7_213 VGND VGND VPWR VPWR sky130_fd_sc_hd__fill_2
XFILLER_11_264 VGND VGND VPWR VPWR sky130_fd_sc_hd__fill_1
XFILLER_46_161 VGND VGND VPWR VPWR sky130_fd_sc_hd__decap_8
X_1021_ fast_pwm_inst.pwm_counter\[2\] VGND VGND VPWR VPWR _0499_ sky130_fd_sc_hd__inv_2
X_1785_ net97 net98 irq_timer_normal VGND VGND VPWR VPWR net102 sky130_fd_sc_hd__nor3b_1
X_1854_ net99 VGND VGND VPWR VPWR _0139_ sky130_fd_sc_hd__inv_2
X_1923_ clknet_3_5__leaf_clk _0063_ _0106_ VGND VGND VPWR VPWR normal_mode_inst.timer_cnt\[3\]
+ sky130_fd_sc_hd__dfrtp_1
X_1219_ _0424_ phase_pwm_inst.direction _0680_ _0692_ VGND VGND VPWR VPWR _0696_ sky130_fd_sc_hd__or4_1
XPHY_EDGE_ROW_51_Left_103 VGND VGND VPWR VPWR sky130_fd_sc_hd__decap_3
XFILLER_45_62 VGND VGND VPWR VPWR sky130_fd_sc_hd__fill_1
XFILLER_45_51 VGND VGND VPWR VPWR sky130_fd_sc_hd__decap_4
XFILLER_43_175 VGND VGND VPWR VPWR sky130_fd_sc_hd__decap_6
XFILLER_35_109 VGND VGND VPWR VPWR sky130_fd_sc_hd__decap_3
XFILLER_28_194 VGND VGND VPWR VPWR sky130_fd_sc_hd__fill_2
XFILLER_28_161 VGND VGND VPWR VPWR sky130_fd_sc_hd__decap_4
XFILLER_3_293 VPWR VGND VPWR VGND sky130_ef_sc_hd__decap_12
X_1570_ _0496_ net28 net27 _0497_ VGND VGND VPWR VPWR _0240_ sky130_fd_sc_hd__o22a_1
X_1004_ fast_pwm_inst.pwm_counter\[20\] VGND VGND VPWR VPWR _0482_ sky130_fd_sc_hd__inv_2
XFILLER_34_197 VGND VGND VPWR VPWR sky130_fd_sc_hd__fill_2
XFILLER_34_153 VPWR VGND VPWR VGND sky130_ef_sc_hd__decap_12
X_1768_ _0775_ _0414_ VGND VGND VPWR VPWR _0051_ sky130_fd_sc_hd__and2b_1
X_1837_ net99 VGND VGND VPWR VPWR _0122_ sky130_fd_sc_hd__inv_2
X_1906_ clknet_3_2__leaf_clk _0191_ _0089_ VGND VGND VPWR VPWR phase_pwm_inst.counter\[19\]
+ sky130_fd_sc_hd__dfrtp_4
X_1699_ _0447_ net27 _0362_ _0366_ VGND VGND VPWR VPWR _0367_ sky130_fd_sc_hd__a22o_1
XFILLER_15_32 VGND VGND VPWR VPWR sky130_fd_sc_hd__decap_8
XFILLER_17_109 VGND VGND VPWR VPWR sky130_fd_sc_hd__decap_3
XFILLER_25_131 VGND VGND VPWR VPWR sky130_fd_sc_hd__fill_1
XFILLER_16_120 VGND VGND VPWR VPWR sky130_fd_sc_hd__decap_4
X_1622_ _0288_ _0289_ _0290_ VGND VGND VPWR VPWR _0291_ sky130_fd_sc_hd__a21o_1
X_1484_ _0900_ _0847_ _0899_ VGND VGND VPWR VPWR _0019_ sky130_fd_sc_hd__and3b_1
X_1553_ fast_pwm_inst.pwm_counter\[25\] _0503_ _0216_ VGND VGND VPWR VPWR _0224_ sky130_fd_sc_hd__o21ai_1
XFILLER_45_204 VPWR VGND VPWR VGND sky130_ef_sc_hd__decap_12
Xclkbuf_3_6__f_clk clknet_0_clk VGND VGND VPWR VPWR clknet_3_6__leaf_clk sky130_fd_sc_hd__clkbuf_16
XFILLER_13_134 VGND VGND VPWR VPWR sky130_fd_sc_hd__fill_2
XFILLER_26_53 VGND VGND VPWR VPWR sky130_fd_sc_hd__decap_6
XFILLER_26_97 VGND VGND VPWR VPWR sky130_fd_sc_hd__fill_2
XFILLER_42_85 VGND VGND VPWR VPWR sky130_fd_sc_hd__decap_4
XFILLER_42_63 VGND VGND VPWR VPWR sky130_fd_sc_hd__fill_1
XFILLER_42_52 VGND VGND VPWR VPWR sky130_fd_sc_hd__decap_3
XFILLER_3_57 VPWR VGND VPWR VGND sky130_ef_sc_hd__decap_12
X_0984_ net72 VGND VGND VPWR VPWR _0462_ sky130_fd_sc_hd__inv_2
X_1605_ net16 _0479_ fast_pwm_inst.pwm_counter\[24\] _0525_ VGND VGND VPWR VPWR _0275_
+ sky130_fd_sc_hd__o2bb2a_1
XFILLER_8_182 VGND VGND VPWR VPWR sky130_fd_sc_hd__fill_2
X_1536_ _0487_ net38 _0938_ VGND VGND VPWR VPWR _0207_ sky130_fd_sc_hd__or3_1
X_1467_ fast_pwm_inst.pwm_counter\[21\] _0886_ _0889_ _0847_ VGND VGND VPWR VPWR _0013_
+ sky130_fd_sc_hd__o211a_1
X_1398_ _0783_ _0789_ _0841_ VGND VGND VPWR VPWR _0842_ sky130_fd_sc_hd__or3b_1
XFILLER_50_251 VGND VGND VPWR VPWR sky130_fd_sc_hd__fill_1
XTAP_TAPCELL_ROW_37_298 VGND VPWR sky130_fd_sc_hd__tapvpwrvgnd_1
XFILLER_50_295 VGND VGND VPWR VPWR sky130_fd_sc_hd__fill_1
XFILLER_6_119 VGND VGND VPWR VPWR sky130_fd_sc_hd__decap_8
XFILLER_10_159 VPWR VGND VPWR VGND sky130_ef_sc_hd__decap_12
XFILLER_12_22 VGND VGND VPWR VPWR sky130_fd_sc_hd__decap_6
XFILLER_18_237 VGND VGND VPWR VPWR sky130_fd_sc_hd__fill_1
XTAP_TAPCELL_ROW_11_165 VGND VPWR sky130_fd_sc_hd__tapvpwrvgnd_1
X_1321_ normal_mode_inst.timer_cnt\[7\] _0765_ VGND VGND VPWR VPWR _0766_ sky130_fd_sc_hd__nand2_1
X_1252_ phase_pwm_inst.counter\[22\] _0616_ _0718_ _0719_ VGND VGND VPWR VPWR _0194_
+ sky130_fd_sc_hd__a22o_1
XFILLER_17_281 VGND VGND VPWR VPWR sky130_fd_sc_hd__decap_4
X_1183_ phase_pwm_inst.counter\[16\] phase_pwm_inst.direction VGND VGND VPWR VPWR
+ _0660_ sky130_fd_sc_hd__nand2_1
XTAP_TAPCELL_ROW_34_279 VGND VPWR sky130_fd_sc_hd__tapvpwrvgnd_1
X_0967_ phase_pwm_inst.counter\[5\] VGND VGND VPWR VPWR _0446_ sky130_fd_sc_hd__inv_2
X_1519_ _0925_ _0926_ _0927_ VGND VGND VPWR VPWR _0928_ sky130_fd_sc_hd__a21o_1
XPHY_EDGE_ROW_12_Right_12 VGND VGND VPWR VPWR sky130_fd_sc_hd__decap_3
XTAP_TAPCELL_ROW_2_122 VGND VPWR sky130_fd_sc_hd__tapvpwrvgnd_1
XPHY_EDGE_ROW_21_Right_21 VGND VGND VPWR VPWR sky130_fd_sc_hd__decap_3
XFILLER_23_273 VGND VGND VPWR VPWR sky130_fd_sc_hd__decap_6
XTAP_TAPCELL_ROW_25_235 VGND VPWR sky130_fd_sc_hd__tapvpwrvgnd_1
XPHY_EDGE_ROW_30_Right_30 VGND VGND VPWR VPWR sky130_fd_sc_hd__decap_3
XTAP_TAPCELL_ROW_48_349 VGND VPWR sky130_fd_sc_hd__tapvpwrvgnd_1
X_1870_ net99 VGND VGND VPWR VPWR _0155_ sky130_fd_sc_hd__inv_2
XFILLER_43_3 VPWR VGND VPWR VGND sky130_ef_sc_hd__decap_12
XTAP_TAPCELL_ROW_39_305 VGND VPWR sky130_fd_sc_hd__tapvpwrvgnd_1
X_1166_ _0641_ _0642_ VGND VGND VPWR VPWR _0643_ sky130_fd_sc_hd__and2_1
X_1304_ _0635_ _0749_ VGND VGND VPWR VPWR _0755_ sky130_fd_sc_hd__xnor2_1
X_1235_ _0707_ phase_pwm_inst.counter\[27\] _0616_ VGND VGND VPWR VPWR _0199_ sky130_fd_sc_hd__mux2_1
X_1097_ phase_pwm_inst.counter\[13\] _0464_ _0567_ _0573_ _0569_ VGND VGND VPWR VPWR
+ _0574_ sky130_fd_sc_hd__a221o_1
XTAP_TAPCELL_ROW_30_260 VGND VPWR sky130_fd_sc_hd__tapvpwrvgnd_1
XFILLER_20_276 VGND VGND VPWR VPWR sky130_fd_sc_hd__decap_4
XFILLER_50_41 VPWR VGND VPWR VGND sky130_ef_sc_hd__decap_12
XFILLER_11_221 VGND VGND VPWR VPWR sky130_fd_sc_hd__decap_3
XFILLER_50_85 VPWR VGND VPWR VGND sky130_ef_sc_hd__decap_12
X_1020_ fast_pwm_inst.pwm_counter\[3\] VGND VGND VPWR VPWR _0498_ sky130_fd_sc_hd__inv_2
XFILLER_15_7 VGND VGND VPWR VPWR sky130_fd_sc_hd__decap_8
XTAP_TAPCELL_ROW_44_330 VGND VPWR sky130_fd_sc_hd__tapvpwrvgnd_1
XFILLER_34_302 VGND VGND VPWR VPWR sky130_fd_sc_hd__fill_2
X_1922_ clknet_3_5__leaf_clk _0060_ _0105_ VGND VGND VPWR VPWR normal_mode_inst.timer_cnt\[2\]
+ sky130_fd_sc_hd__dfrtp_1
X_1784_ _0034_ _0420_ VGND VGND VPWR VPWR _0062_ sky130_fd_sc_hd__and2b_1
X_1853_ net99 VGND VGND VPWR VPWR _0138_ sky130_fd_sc_hd__inv_2
X_1149_ _0624_ _0625_ VGND VGND VPWR VPWR _0626_ sky130_fd_sc_hd__nand2_1
X_1218_ phase_pwm_inst.counter\[28\] _0470_ _0693_ VGND VGND VPWR VPWR _0695_ sky130_fd_sc_hd__or3b_1
XFILLER_20_22 VGND VGND VPWR VPWR sky130_fd_sc_hd__decap_6
X_1003_ fast_pwm_inst.pwm_counter\[21\] VGND VGND VPWR VPWR _0481_ sky130_fd_sc_hd__inv_2
XFILLER_34_121 VGND VGND VPWR VPWR sky130_fd_sc_hd__decap_6
X_1905_ clknet_3_2__leaf_clk _0190_ _0088_ VGND VGND VPWR VPWR phase_pwm_inst.counter\[18\]
+ sky130_fd_sc_hd__dfrtp_4
XFILLER_34_187 VGND VGND VPWR VPWR sky130_fd_sc_hd__decap_8
XFILLER_34_165 VGND VGND VPWR VPWR sky130_fd_sc_hd__fill_1
X_1767_ normal_mode_inst.timer_cnt\[19\] normal_mode_inst.timer_cnt\[20\] _0773_ normal_mode_inst.timer_cnt\[21\]
+ VGND VGND VPWR VPWR _0414_ sky130_fd_sc_hd__a31o_1
X_1836_ net99 VGND VGND VPWR VPWR _0121_ sky130_fd_sc_hd__inv_2
XFILLER_1_209 VGND VGND VPWR VPWR sky130_fd_sc_hd__decap_4
XPHY_EDGE_ROW_6_Right_6 VGND VGND VPWR VPWR sky130_fd_sc_hd__decap_3
X_1698_ _0449_ net23 _0363_ _0364_ _0365_ VGND VGND VPWR VPWR _0366_ sky130_fd_sc_hd__a221o_1
XFILLER_15_55 VGND VGND VPWR VPWR sky130_fd_sc_hd__fill_1
XFILLER_15_66 VGND VGND VPWR VPWR sky130_fd_sc_hd__fill_1
XFILLER_40_179 VGND VGND VPWR VPWR sky130_fd_sc_hd__decap_3
XFILLER_31_98 VGND VGND VPWR VPWR sky130_fd_sc_hd__decap_6
XFILLER_0_253 VGND VGND VPWR VPWR sky130_fd_sc_hd__fill_2
X_1552_ _0477_ net50 _0919_ _0212_ _0222_ VGND VGND VPWR VPWR _0223_ sky130_fd_sc_hd__a221o_1
X_1621_ _0446_ net60 net59 _0447_ VGND VGND VPWR VPWR _0290_ sky130_fd_sc_hd__a22o_1
X_1483_ fast_pwm_inst.pwm_counter\[27\] _0898_ VGND VGND VPWR VPWR _0900_ sky130_fd_sc_hd__and2_1
XFILLER_39_213 VGND VGND VPWR VPWR sky130_fd_sc_hd__decap_8
XFILLER_22_135 VGND VGND VPWR VPWR sky130_fd_sc_hd__fill_1
X_1819_ net99 VGND VGND VPWR VPWR _0104_ sky130_fd_sc_hd__inv_2
XFILLER_45_216 VGND VGND VPWR VPWR sky130_fd_sc_hd__fill_2
XFILLER_13_179 VPWR VGND VPWR VGND sky130_ef_sc_hd__decap_12
XFILLER_42_97 VGND VGND VPWR VPWR sky130_fd_sc_hd__decap_8
XFILLER_42_75 VGND VGND VPWR VPWR sky130_fd_sc_hd__decap_4
XFILLER_5_301 VGND VGND VPWR VPWR sky130_fd_sc_hd__decap_3
XFILLER_3_69 VPWR VGND VPWR VGND sky130_ef_sc_hd__decap_12
XTAP_TAPCELL_ROW_8_150 VGND VPWR sky130_fd_sc_hd__tapvpwrvgnd_1
XFILLER_36_238 VGND VGND VPWR VPWR sky130_fd_sc_hd__fill_1
XFILLER_44_293 VGND VGND VPWR VPWR sky130_fd_sc_hd__decap_8
X_0983_ net78 VGND VGND VPWR VPWR _0461_ sky130_fd_sc_hd__inv_2
XFILLER_8_161 VGND VGND VPWR VPWR sky130_fd_sc_hd__decap_3
X_1604_ fast_pwm_inst.pwm_counter\[27\] _0522_ _0523_ fast_pwm_inst.pwm_counter\[26\]
+ _0273_ VGND VGND VPWR VPWR _0274_ sky130_fd_sc_hd__o221a_1
X_1535_ _0941_ _0939_ VGND VGND VPWR VPWR _0206_ sky130_fd_sc_hd__nand2b_1
X_1466_ _0888_ VGND VGND VPWR VPWR _0889_ sky130_fd_sc_hd__inv_2
X_1397_ net86 _0473_ _0474_ net85 _0782_ VGND VGND VPWR VPWR _0841_ sky130_fd_sc_hd__o221a_1
XFILLER_37_97 VGND VGND VPWR VPWR sky130_fd_sc_hd__decap_4
XFILLER_37_75 VGND VGND VPWR VPWR sky130_fd_sc_hd__decap_8
XFILLER_5_120 VGND VGND VPWR VPWR sky130_fd_sc_hd__decap_6
XTAP_TAPCELL_ROW_11_166 VGND VPWR sky130_fd_sc_hd__tapvpwrvgnd_1
X_1320_ normal_mode_inst.timer_cnt\[5\] normal_mode_inst.timer_cnt\[4\] normal_mode_inst.timer_cnt\[6\]
+ _0763_ VGND VGND VPWR VPWR _0765_ sky130_fd_sc_hd__and4_1
X_1182_ phase_pwm_inst.counter\[16\] phase_pwm_inst.direction VGND VGND VPWR VPWR
+ _0659_ sky130_fd_sc_hd__or2_1
X_1251_ _0677_ _0715_ _0616_ VGND VGND VPWR VPWR _0719_ sky130_fd_sc_hd__o21ba_1
XFILLER_32_230 VPWR VGND VPWR VGND sky130_ef_sc_hd__decap_12
XFILLER_24_219 VGND VGND VPWR VPWR sky130_fd_sc_hd__decap_8
X_0966_ phase_pwm_inst.counter\[6\] VGND VGND VPWR VPWR _0445_ sky130_fd_sc_hd__inv_2
X_1518_ _0495_ net61 net60 _0496_ VGND VGND VPWR VPWR _0927_ sky130_fd_sc_hd__a22o_1
X_1449_ _0876_ _0877_ _0847_ VGND VGND VPWR VPWR _0006_ sky130_fd_sc_hd__and3b_1
XTAP_TAPCELL_ROW_2_123 VGND VPWR sky130_fd_sc_hd__tapvpwrvgnd_1
XFILLER_23_55 VGND VGND VPWR VPWR sky130_fd_sc_hd__fill_1
XFILLER_23_66 VPWR VGND VPWR VGND sky130_ef_sc_hd__decap_12
XTAP_TAPCELL_ROW_25_236 VGND VPWR sky130_fd_sc_hd__tapvpwrvgnd_1
XFILLER_3_3 VPWR VGND VPWR VGND sky130_ef_sc_hd__decap_12
XFILLER_23_99 VPWR VGND VPWR VGND sky130_ef_sc_hd__decap_12
XFILLER_48_96 VGND VGND VPWR VPWR sky130_fd_sc_hd__fill_2
XFILLER_48_41 VPWR VGND VPWR VGND sky130_ef_sc_hd__decap_12
XFILLER_9_46 VGND VGND VPWR VPWR sky130_fd_sc_hd__fill_1
XFILLER_9_57 VGND VGND VPWR VPWR sky130_fd_sc_hd__decap_3
XFILLER_36_3 VPWR VGND VPWR VGND sky130_ef_sc_hd__decap_12
X_1303_ _0754_ phase_pwm_inst.counter\[6\] _0616_ VGND VGND VPWR VPWR _0178_ sky130_fd_sc_hd__mux2_1
XTAP_TAPCELL_ROW_39_306 VGND VPWR sky130_fd_sc_hd__tapvpwrvgnd_1
X_1165_ phase_pwm_inst.counter\[8\] phase_pwm_inst.direction VGND VGND VPWR VPWR _0642_
+ sky130_fd_sc_hd__xor2_1
X_1096_ _0566_ _0568_ _0552_ VGND VGND VPWR VPWR _0573_ sky130_fd_sc_hd__a21boi_1
X_1234_ _0684_ _0706_ VGND VGND VPWR VPWR _0707_ sky130_fd_sc_hd__xor2_1
XFILLER_20_233 VGND VGND VPWR VPWR sky130_fd_sc_hd__decap_8
X_0949_ phase_pwm_inst.counter\[24\] VGND VGND VPWR VPWR _0428_ sky130_fd_sc_hd__inv_2
XTAP_TAPCELL_ROW_30_261 VGND VPWR sky130_fd_sc_hd__tapvpwrvgnd_1
XFILLER_50_53 VPWR VGND VPWR VGND sky130_ef_sc_hd__decap_12
XFILLER_50_97 VPWR VGND VPWR VGND sky130_ef_sc_hd__decap_12
XFILLER_46_185 VGND VGND VPWR VPWR sky130_fd_sc_hd__decap_6
XFILLER_46_141 VGND VGND VPWR VPWR sky130_fd_sc_hd__fill_1
XTAP_TAPCELL_ROW_44_331 VGND VPWR sky130_fd_sc_hd__tapvpwrvgnd_1
X_1852_ net99 VGND VGND VPWR VPWR _0137_ sky130_fd_sc_hd__inv_2
X_1921_ clknet_3_5__leaf_clk _0049_ _0104_ VGND VGND VPWR VPWR normal_mode_inst.timer_cnt\[1\]
+ sky130_fd_sc_hd__dfrtp_1
X_1783_ normal_mode_inst.timer_cnt\[30\] _0780_ normal_mode_inst.timer_cnt\[31\] VGND
+ VGND VPWR VPWR _0420_ sky130_fd_sc_hd__a21o_1
XFILLER_29_108 VGND VGND VPWR VPWR sky130_fd_sc_hd__decap_4
X_1079_ net76 phase_pwm_inst.counter\[1\] VGND VGND VPWR VPWR _0556_ sky130_fd_sc_hd__and2b_1
X_1148_ phase_pwm_inst.counter\[1\] phase_pwm_inst.direction VGND VGND VPWR VPWR _0625_
+ sky130_fd_sc_hd__or2_1
X_1217_ phase_pwm_inst.counter\[28\] phase_pwm_inst.direction VGND VGND VPWR VPWR
+ _0694_ sky130_fd_sc_hd__xor2_1
XFILLER_20_67 VGND VGND VPWR VPWR sky130_fd_sc_hd__fill_2
XFILLER_20_78 VGND VGND VPWR VPWR sky130_fd_sc_hd__decap_6
XFILLER_28_141 VPWR VGND VPWR VGND sky130_ef_sc_hd__decap_12
XFILLER_16_303 VGND VGND VPWR VPWR sky130_fd_sc_hd__fill_1
XFILLER_45_97 VPWR VGND VPWR VGND sky130_ef_sc_hd__decap_12
XFILLER_6_69 VGND VGND VPWR VPWR sky130_fd_sc_hd__decap_6
X_1002_ fast_pwm_inst.pwm_counter\[22\] VGND VGND VPWR VPWR _0480_ sky130_fd_sc_hd__inv_2
X_1835_ net99 VGND VGND VPWR VPWR _0120_ sky130_fd_sc_hd__inv_2
X_1904_ clknet_3_2__leaf_clk _0189_ _0087_ VGND VGND VPWR VPWR phase_pwm_inst.counter\[17\]
+ sky130_fd_sc_hd__dfrtp_4
X_1766_ normal_mode_inst.timer_cnt\[20\] _0774_ VGND VGND VPWR VPWR _0050_ sky130_fd_sc_hd__xnor2_1
X_1697_ phase_pwm_inst.counter\[3\] net26 VGND VGND VPWR VPWR _0365_ sky130_fd_sc_hd__and2b_1
XFILLER_25_155 VGND VGND VPWR VPWR sky130_fd_sc_hd__fill_2
XFILLER_25_166 VGND VGND VPWR VPWR sky130_fd_sc_hd__fill_2
XFILLER_25_177 VGND VGND VPWR VPWR sky130_fd_sc_hd__fill_2
XFILLER_25_199 VGND VGND VPWR VPWR sky130_fd_sc_hd__decap_3
XFILLER_0_287 VGND VGND VPWR VPWR sky130_fd_sc_hd__decap_6
XFILLER_0_265 VGND VGND VPWR VPWR sky130_fd_sc_hd__decap_4
XFILLER_0_221 VGND VGND VPWR VPWR sky130_fd_sc_hd__decap_3
XFILLER_48_269 VPWR VGND VPWR VGND sky130_ef_sc_hd__decap_12
XFILLER_16_133 VGND VGND VPWR VPWR sky130_fd_sc_hd__decap_6
X_1482_ fast_pwm_inst.pwm_counter\[27\] _0898_ VGND VGND VPWR VPWR _0899_ sky130_fd_sc_hd__or2_1
X_1551_ _0216_ _0217_ _0219_ _0221_ VGND VGND VPWR VPWR _0222_ sky130_fd_sc_hd__or4_1
X_1620_ _0447_ net59 net58 _0448_ VGND VGND VPWR VPWR _0289_ sky130_fd_sc_hd__o22a_1
XFILLER_39_225 VPWR VGND VPWR VGND sky130_ef_sc_hd__decap_12
XTAP_TAPCELL_ROW_17_194 VGND VPWR sky130_fd_sc_hd__tapvpwrvgnd_1