*SPEF "ieee 1481-1999"
*DESIGN "Timer_PWM_Generator"
*DATE "01:09:42 Friday November 22, 2024"
*VENDOR "The OpenROAD Project"
*PROGRAM "OpenROAD"
*VERSION "v2.0-16235-gedf00dff9"
*DESIGN_FLOW "NAME_SCOPE LOCAL" "PIN_CAP NONE"
*DIVIDER /
*DELIMITER :
*BUS_DELIMITER []
*T_UNIT 1 NS
*C_UNIT 1 PF
*R_UNIT 1 OHM
*L_UNIT 1 HENRY

*NAME_MAP
*1 PWM_CNTA[0]
*2 PWM_CNTA[10]
*3 PWM_CNTA[11]
*4 PWM_CNTA[12]
*5 PWM_CNTA[13]
*6 PWM_CNTA[14]
*7 PWM_CNTA[15]
*8 PWM_CNTA[16]
*9 PWM_CNTA[17]
*10 PWM_CNTA[18]
*11 PWM_CNTA[19]
*12 PWM_CNTA[1]
*13 PWM_CNTA[20]
*14 PWM_CNTA[21]
*15 PWM_CNTA[22]
*16 PWM_CNTA[23]
*17 PWM_CNTA[24]
*18 PWM_CNTA[25]
*19 PWM_CNTA[26]
*20 PWM_CNTA[27]
*21 PWM_CNTA[28]
*22 PWM_CNTA[29]
*23 PWM_CNTA[2]
*24 PWM_CNTA[30]
*25 PWM_CNTA[31]
*26 PWM_CNTA[3]
*27 PWM_CNTA[4]
*28 PWM_CNTA[5]
*29 PWM_CNTA[6]
*30 PWM_CNTA[7]
*31 PWM_CNTA[8]
*32 PWM_CNTA[9]
*33 PWM_CNTB[0]
*34 PWM_CNTB[10]
*35 PWM_CNTB[11]
*36 PWM_CNTB[12]
*37 PWM_CNTB[13]
*38 PWM_CNTB[14]
*39 PWM_CNTB[15]
*40 PWM_CNTB[16]
*41 PWM_CNTB[17]
*42 PWM_CNTB[18]
*43 PWM_CNTB[19]
*44 PWM_CNTB[1]
*45 PWM_CNTB[20]
*46 PWM_CNTB[21]
*47 PWM_CNTB[22]
*48 PWM_CNTB[23]
*49 PWM_CNTB[24]
*50 PWM_CNTB[25]
*51 PWM_CNTB[26]
*52 PWM_CNTB[27]
*53 PWM_CNTB[28]
*54 PWM_CNTB[29]
*55 PWM_CNTB[2]
*56 PWM_CNTB[30]
*57 PWM_CNTB[31]
*58 PWM_CNTB[3]
*59 PWM_CNTB[4]
*60 PWM_CNTB[5]
*61 PWM_CNTB[6]
*62 PWM_CNTB[7]
*63 PWM_CNTB[8]
*64 PWM_CNTB[9]
*65 PWM_OUTA
*66 PWM_OUTB
*67 TIMER_TOP[0]
*68 TIMER_TOP[10]
*69 TIMER_TOP[11]
*70 TIMER_TOP[12]
*71 TIMER_TOP[13]
*72 TIMER_TOP[14]
*73 TIMER_TOP[15]
*74 TIMER_TOP[16]
*75 TIMER_TOP[17]
*76 TIMER_TOP[18]
*77 TIMER_TOP[19]
*78 TIMER_TOP[1]
*79 TIMER_TOP[20]
*80 TIMER_TOP[21]
*81 TIMER_TOP[22]
*82 TIMER_TOP[23]
*83 TIMER_TOP[24]
*84 TIMER_TOP[25]
*85 TIMER_TOP[26]
*86 TIMER_TOP[27]
*87 TIMER_TOP[28]
*88 TIMER_TOP[29]
*89 TIMER_TOP[2]
*90 TIMER_TOP[30]
*91 TIMER_TOP[31]
*92 TIMER_TOP[3]
*93 TIMER_TOP[4]
*94 TIMER_TOP[5]
*95 TIMER_TOP[6]
*96 TIMER_TOP[7]
*97 TIMER_TOP[8]
*98 TIMER_TOP[9]
*99 TMR_MODE[0]
*100 TMR_MODE[1]
*101 TMR_SRC[0]
*102 TMR_SRC[1]
*105 clk
*106 reset
*107 timer_interrupt
*108 _0000_
*109 _0001_
*110 _0002_
*111 _0003_
*112 _0004_
*113 _0005_
*114 _0006_
*115 _0007_
*116 _0008_
*117 _0009_
*118 _0010_
*119 _0011_
*120 _0012_
*121 _0013_
*122 _0014_
*123 _0015_
*124 _0016_
*125 _0017_
*126 _0018_
*127 _0019_
*128 _0020_
*129 _0021_
*130 _0022_
*131 _0023_
*132 _0024_
*133 _0025_
*134 _0026_
*135 _0027_
*136 _0028_
*137 _0029_
*138 _0030_
*139 _0031_
*140 _0032_
*141 _0033_
*142 _0034_
*143 _0035_
*144 _0036_
*145 _0037_
*146 _0038_
*147 _0039_
*148 _0040_
*149 _0041_
*150 _0042_
*151 _0043_
*152 _0044_
*153 _0045_
*154 _0046_
*155 _0047_
*156 _0048_
*157 _0049_
*158 _0050_
*159 _0051_
*160 _0052_
*161 _0053_
*162 _0054_
*163 _0055_
*164 _0056_
*165 _0057_
*166 _0058_
*167 _0059_
*168 _0060_
*169 _0061_
*170 _0062_
*171 _0063_
*172 _0064_
*173 _0065_
*174 _0066_
*175 _0067_
*176 _0068_
*177 _0069_
*178 _0070_
*179 _0071_
*180 _0072_
*181 _0073_
*182 _0074_
*183 _0075_
*184 _0076_
*185 _0077_
*186 _0078_
*187 _0079_
*188 _0080_
*189 _0081_
*190 _0082_
*191 _0083_
*192 _0084_
*193 _0085_
*194 _0086_
*195 _0087_
*196 _0088_
*197 _0089_
*198 _0090_
*199 _0091_
*200 _0092_
*201 _0093_
*202 _0094_
*203 _0095_
*204 _0096_
*205 _0097_
*206 _0098_
*207 _0099_
*208 _0100_
*209 _0101_
*210 _0102_
*211 _0103_
*212 _0104_
*213 _0105_
*214 _0106_
*215 _0107_
*216 _0108_
*217 _0109_
*218 _0110_
*219 _0111_
*220 _0112_
*221 _0113_
*222 _0114_
*223 _0115_
*224 _0116_
*225 _0117_
*226 _0118_
*227 _0119_
*228 _0120_
*229 _0121_
*230 _0122_
*231 _0123_
*232 _0124_
*233 _0125_
*234 _0126_
*235 _0127_
*236 _0128_
*237 _0129_
*238 _0130_
*239 _0131_
*240 _0132_
*241 _0133_
*242 _0134_
*243 _0135_
*244 _0136_
*245 _0137_
*246 _0138_
*247 _0139_
*248 _0140_
*249 _0141_
*250 _0142_
*251 _0143_
*252 _0144_
*253 _0145_
*254 _0146_
*255 _0147_
*256 _0148_
*257 _0149_
*258 _0150_
*259 _0151_
*260 _0152_
*261 _0153_
*262 _0154_
*263 _0155_
*264 _0156_
*265 _0157_
*266 _0158_
*267 _0159_
*268 _0160_
*269 _0161_
*270 _0162_
*271 _0163_
*272 _0164_
*273 _0165_
*274 _0166_
*275 _0167_
*276 _0168_
*277 _0169_
*278 _0170_
*279 _0171_
*280 _0172_
*281 _0173_
*282 _0174_
*283 _0175_
*284 _0176_
*285 _0177_
*286 _0178_
*287 _0179_
*288 _0180_
*289 _0181_
*290 _0182_
*291 _0183_
*292 _0184_
*293 _0185_
*294 _0186_
*295 _0187_
*296 _0188_
*297 _0189_
*298 _0190_
*299 _0191_
*300 _0192_
*301 _0193_
*302 _0194_
*303 _0195_
*304 _0196_
*305 _0197_
*306 _0198_
*307 _0199_
*308 _0200_
*309 _0201_
*310 _0202_
*311 _0203_
*312 _0204_
*313 _0205_
*314 _0206_
*315 _0207_
*316 _0208_
*317 _0209_
*318 _0210_
*319 _0211_
*320 _0212_
*321 _0213_
*322 _0214_
*323 _0215_
*324 _0216_
*325 _0217_
*326 _0218_
*327 _0219_
*328 _0220_
*329 _0221_
*330 _0222_
*331 _0223_
*332 _0224_
*333 _0225_
*334 _0226_
*335 _0227_
*336 _0228_
*337 _0229_
*338 _0230_
*339 _0231_
*340 _0232_
*341 _0233_
*342 _0234_
*343 _0235_
*344 _0236_
*345 _0237_
*346 _0238_
*347 _0239_
*348 _0240_
*349 _0241_
*350 _0242_
*351 _0243_
*352 _0244_
*353 _0245_
*354 _0246_
*355 _0247_
*356 _0248_
*357 _0249_
*358 _0250_
*359 _0251_
*360 _0252_
*361 _0253_
*362 _0254_
*363 _0255_
*364 _0256_
*365 _0257_
*366 _0258_
*367 _0259_
*368 _0260_
*369 _0261_
*370 _0262_
*371 _0263_
*372 _0264_
*373 _0265_
*374 _0266_
*375 _0267_
*376 _0268_
*377 _0269_
*378 _0270_
*379 _0271_
*380 _0272_
*381 _0273_
*382 _0274_
*383 _0275_
*384 _0276_
*385 _0277_
*386 _0278_
*387 _0279_
*388 _0280_
*389 _0281_
*390 _0282_
*391 _0283_
*392 _0284_
*393 _0285_
*394 _0286_
*395 _0287_
*396 _0288_
*397 _0289_
*398 _0290_
*399 _0291_
*400 _0292_
*401 _0293_
*402 _0294_
*403 _0295_
*404 _0296_
*405 _0297_
*406 _0298_
*407 _0299_
*408 _0300_
*409 _0301_
*410 _0302_
*411 _0303_
*412 _0304_
*413 _0305_
*414 _0306_
*415 _0307_
*416 _0308_
*417 _0309_
*418 _0310_
*419 _0311_
*420 _0312_
*421 _0313_
*422 _0314_
*423 _0315_
*424 _0316_
*425 _0317_
*426 _0318_
*427 _0319_
*428 _0320_
*429 _0321_
*430 _0322_
*431 _0323_
*432 _0324_
*433 _0325_
*434 _0326_
*435 _0327_
*436 _0328_
*437 _0329_
*438 _0330_
*439 _0331_
*440 _0332_
*441 _0333_
*442 _0334_
*443 _0335_
*444 _0336_
*445 _0337_
*446 _0338_
*447 _0339_
*448 _0340_
*449 _0341_
*450 _0342_
*451 _0343_
*452 _0344_
*453 _0345_
*454 _0346_
*455 _0347_
*456 _0348_
*457 _0349_
*458 _0350_
*459 _0351_
*460 _0352_
*461 _0353_
*462 _0354_
*463 _0355_
*464 _0356_
*465 _0357_
*466 _0358_
*467 _0359_
*468 _0360_
*469 _0361_
*470 _0362_
*471 _0363_
*472 _0364_
*473 _0365_
*474 _0366_
*475 _0367_
*476 _0368_
*477 _0369_
*478 _0370_
*479 _0371_
*480 _0372_
*481 _0373_
*482 _0374_
*483 _0375_
*484 _0376_
*485 _0377_
*486 _0378_
*487 _0379_
*488 _0380_
*489 _0381_
*490 _0382_
*491 _0383_
*492 _0384_
*493 _0385_
*494 _0386_
*495 _0387_
*496 _0388_
*497 _0389_
*498 _0390_
*499 _0391_
*500 _0392_
*501 _0393_
*502 _0394_
*503 _0395_
*504 _0396_
*505 _0397_
*506 _0398_
*507 _0399_
*508 _0400_
*509 _0401_
*510 _0402_
*511 _0403_
*512 _0404_
*513 _0405_
*514 _0406_
*515 _0407_
*516 _0408_
*517 _0409_
*518 _0410_
*519 _0411_
*520 _0412_
*521 _0413_
*522 _0414_
*523 _0415_
*524 _0416_
*525 _0417_
*526 _0418_
*527 _0419_
*528 _0420_
*529 _0421_
*530 _0422_
*531 _0423_
*532 _0424_
*533 _0425_
*534 _0426_
*535 _0427_
*536 _0428_
*537 _0429_
*538 _0430_
*539 _0431_
*540 _0432_
*541 _0433_
*542 _0434_
*543 _0435_
*544 _0436_
*545 _0437_
*546 _0438_
*547 _0439_
*548 _0440_
*549 _0441_
*550 _0442_
*551 _0443_
*552 _0444_
*553 _0445_
*554 _0446_
*555 _0447_
*556 _0448_
*557 _0449_
*558 _0450_
*559 _0451_
*560 _0452_
*561 _0453_
*562 _0454_
*563 _0455_
*564 _0456_
*565 _0457_
*566 _0458_
*567 _0459_
*568 _0460_
*569 _0461_
*570 _0462_
*571 _0463_
*572 _0464_
*573 _0465_
*574 _0466_
*575 _0467_
*576 _0468_
*577 _0469_
*578 _0470_
*579 _0471_
*580 _0472_
*581 _0473_
*582 _0474_
*583 _0475_
*584 _0476_
*585 _0477_
*586 _0478_
*587 _0479_
*588 _0480_
*589 _0481_
*590 _0482_
*591 _0483_
*592 _0484_
*593 _0485_
*594 _0486_
*595 _0487_
*596 _0488_
*597 _0489_
*598 _0490_
*599 _0491_
*600 _0492_
*601 _0493_
*602 _0494_
*603 _0495_
*604 _0496_
*605 _0497_
*606 _0498_
*607 _0499_
*608 _0500_
*609 _0501_
*610 _0502_
*611 _0503_
*612 _0504_
*613 _0505_
*614 _0506_
*615 _0507_
*616 _0508_
*617 _0509_
*618 _0510_
*619 _0511_
*620 _0512_
*621 _0513_
*622 _0514_
*623 _0515_
*624 _0516_
*625 _0517_
*626 _0518_
*627 _0519_
*628 _0520_
*629 _0521_
*630 _0522_
*631 _0523_
*632 _0524_
*633 _0525_
*634 _0526_
*635 _0527_
*636 _0528_
*637 _0529_
*638 _0530_
*639 _0531_
*640 _0532_
*641 _0533_
*642 _0534_
*643 _0535_
*644 _0536_
*645 _0537_
*646 _0538_
*647 _0539_
*648 _0540_
*649 _0541_
*650 _0542_
*651 _0543_
*652 _0544_
*653 _0545_
*654 _0546_
*655 _0547_
*656 _0548_
*657 _0549_
*658 _0550_
*659 _0551_
*660 _0552_
*661 _0553_
*662 _0554_
*663 _0555_
*664 _0556_
*665 _0557_
*666 _0558_
*667 _0559_
*668 _0560_
*669 _0561_
*670 _0562_
*671 _0563_
*672 _0564_
*673 _0565_
*674 _0566_
*675 _0567_
*676 _0568_
*677 _0569_
*678 _0570_
*679 _0571_
*680 _0572_
*681 _0573_
*682 _0574_
*683 _0575_
*684 _0576_
*685 _0577_
*686 _0578_
*687 _0579_
*688 _0580_
*689 _0581_
*690 _0582_
*691 _0583_
*692 _0584_
*693 _0585_
*694 _0586_
*695 _0587_
*696 _0588_
*697 _0589_
*698 _0590_
*699 _0591_
*700 _0592_
*701 _0593_
*702 _0594_
*703 _0595_
*704 _0596_
*705 _0597_
*706 _0598_
*707 _0599_
*708 _0600_
*709 _0601_
*710 _0602_
*711 _0603_
*712 _0604_
*713 _0605_
*714 _0606_
*715 _0607_
*716 _0608_
*717 _0609_
*718 _0610_
*719 _0611_
*720 _0612_
*721 _0613_
*722 _0614_
*723 _0615_
*724 _0616_
*725 _0617_
*726 _0618_
*727 _0619_
*728 _0620_
*729 _0621_
*730 _0622_
*731 _0623_
*732 _0624_
*733 _0625_
*734 _0626_
*735 _0627_
*736 _0628_
*737 _0629_
*738 _0630_
*739 _0631_
*740 _0632_
*741 _0633_
*742 _0634_
*743 _0635_
*744 _0636_
*745 _0637_
*746 _0638_
*747 _0639_
*748 _0640_
*749 _0641_
*750 _0642_
*751 _0643_
*752 _0644_
*753 _0645_
*754 _0646_
*755 _0647_
*756 _0648_
*757 _0649_
*758 _0650_
*759 _0651_
*760 _0652_
*761 _0653_
*762 _0654_
*763 _0655_
*764 _0656_
*765 _0657_
*766 _0658_
*767 _0659_
*768 _0660_
*769 _0661_
*770 _0662_
*771 _0663_
*772 _0664_
*773 _0665_
*774 _0666_
*775 _0667_
*776 _0668_
*777 _0669_
*778 _0670_
*779 _0671_
*780 _0672_
*781 _0673_
*782 _0674_
*783 _0675_
*784 _0676_
*785 _0677_
*786 _0678_
*787 _0679_
*788 _0680_
*789 _0681_
*790 _0682_
*791 _0683_
*792 _0684_
*793 _0685_
*794 _0686_
*795 _0687_
*796 _0688_
*797 _0689_
*798 _0690_
*799 _0691_
*800 _0692_
*801 _0693_
*802 _0694_
*803 _0695_
*804 _0696_
*805 _0697_
*806 _0698_
*807 _0699_
*808 _0700_
*809 _0701_
*810 _0702_
*811 _0703_
*812 _0704_
*813 _0705_
*814 _0706_
*815 _0707_
*816 _0708_
*817 _0709_
*818 _0710_
*819 _0711_
*820 _0712_
*821 _0713_
*822 _0714_
*823 _0715_
*824 _0716_
*825 _0717_
*826 _0718_
*827 _0719_
*828 _0720_
*829 _0721_
*830 _0722_
*831 _0723_
*832 _0724_
*833 _0725_
*834 _0726_
*835 _0727_
*836 _0728_
*837 _0729_
*838 _0730_
*839 _0731_
*840 _0732_
*841 _0733_
*842 _0734_
*843 _0735_
*844 _0736_
*845 _0737_
*846 _0738_
*847 _0739_
*848 _0740_
*849 _0741_
*850 _0742_
*851 _0743_
*852 _0744_
*853 _0745_
*854 _0746_
*855 _0747_
*856 _0748_
*857 _0749_
*858 _0750_
*859 _0751_
*860 _0752_
*861 _0753_
*862 _0754_
*863 _0755_
*864 _0756_
*865 _0757_
*866 _0758_
*867 _0759_
*868 _0760_
*869 _0761_
*870 _0762_
*871 _0763_
*872 _0764_
*873 _0765_
*874 _0766_
*875 _0767_
*876 _0768_
*877 _0769_
*878 _0770_
*879 _0771_
*880 _0772_
*881 _0773_
*882 _0774_
*883 _0775_
*884 _0776_
*885 _0777_
*886 _0778_
*887 _0779_
*888 _0780_
*889 _0781_
*890 _0782_
*891 _0783_
*892 _0784_
*893 _0785_
*894 _0786_
*895 _0787_
*896 _0788_
*897 _0789_
*898 _0790_
*899 _0791_
*900 _0792_
*901 _0793_
*902 _0794_
*903 _0795_
*904 _0796_
*905 _0797_
*906 _0798_
*907 _0799_
*908 _0800_
*909 _0801_
*910 _0802_
*911 _0803_
*912 _0804_
*913 _0805_
*914 _0806_
*915 _0807_
*916 _0808_
*917 _0809_
*918 _0810_
*919 _0811_
*920 _0812_
*921 _0813_
*922 _0814_
*923 _0815_
*924 _0816_
*925 _0817_
*926 _0818_
*927 _0819_
*928 _0820_
*929 _0821_
*930 _0822_
*931 _0823_
*932 _0824_
*933 _0825_
*934 _0826_
*935 _0827_
*936 _0828_
*937 _0829_
*938 _0830_
*939 _0831_
*940 _0832_
*941 _0833_
*942 _0834_
*943 _0835_
*944 _0836_
*945 _0837_
*946 _0838_
*947 _0839_
*948 _0840_
*949 _0841_
*950 _0842_
*951 _0843_
*952 _0844_
*953 _0845_
*954 _0846_
*955 _0847_
*956 _0848_
*957 _0849_
*958 _0850_
*959 _0851_
*960 _0852_
*961 _0853_
*962 _0854_
*963 _0855_
*964 _0856_
*965 _0857_
*966 _0858_
*967 _0859_
*968 _0860_
*969 _0861_
*970 _0862_
*971 _0863_
*972 _0864_
*973 _0865_
*974 _0866_
*975 _0867_
*976 _0868_
*977 _0869_
*978 _0870_
*979 _0871_
*980 _0872_
*981 _0873_
*982 _0874_
*983 _0875_
*984 _0876_
*985 _0877_
*986 _0878_
*987 _0879_
*988 _0880_
*989 _0881_
*990 _0882_
*991 _0883_
*992 _0884_
*993 _0885_
*994 _0886_
*995 _0887_
*996 _0888_
*997 _0889_
*998 _0890_
*999 _0891_
*1000 _0892_
*1001 _0893_
*1002 _0894_
*1003 _0895_
*1004 _0896_
*1005 _0897_
*1006 _0898_
*1007 _0899_
*1008 _0900_
*1009 _0901_
*1010 _0902_
*1011 _0903_
*1012 _0904_
*1013 _0905_
*1014 _0906_
*1015 _0907_
*1016 _0908_
*1017 _0909_
*1018 _0910_
*1019 _0911_
*1020 _0912_
*1021 _0913_
*1022 _0914_
*1023 _0915_
*1024 _0916_
*1025 _0917_
*1026 _0918_
*1027 _0919_
*1028 _0920_
*1029 _0921_
*1030 _0922_
*1031 _0923_
*1032 _0924_
*1033 _0925_
*1034 _0926_
*1035 _0927_
*1036 _0928_
*1037 _0929_
*1038 _0930_
*1039 _0931_
*1040 _0932_
*1041 _0933_
*1042 _0934_
*1043 _0935_
*1044 _0936_
*1045 _0937_
*1046 _0938_
*1047 _0939_
*1048 _0940_
*1049 _0941_
*1050 clknet_0_clk
*1051 clknet_3_0__leaf_clk
*1052 clknet_3_1__leaf_clk
*1053 clknet_3_2__leaf_clk
*1054 clknet_3_3__leaf_clk
*1055 clknet_3_4__leaf_clk
*1056 clknet_3_5__leaf_clk
*1057 clknet_3_6__leaf_clk
*1058 clknet_3_7__leaf_clk
*1059 fast_pwm_inst\.pwm_counter\[0\]
*1060 fast_pwm_inst\.pwm_counter\[10\]
*1061 fast_pwm_inst\.pwm_counter\[11\]
*1062 fast_pwm_inst\.pwm_counter\[12\]
*1063 fast_pwm_inst\.pwm_counter\[13\]
*1064 fast_pwm_inst\.pwm_counter\[14\]
*1065 fast_pwm_inst\.pwm_counter\[15\]
*1066 fast_pwm_inst\.pwm_counter\[16\]
*1067 fast_pwm_inst\.pwm_counter\[17\]
*1068 fast_pwm_inst\.pwm_counter\[18\]
*1069 fast_pwm_inst\.pwm_counter\[19\]
*1070 fast_pwm_inst\.pwm_counter\[1\]
*1071 fast_pwm_inst\.pwm_counter\[20\]
*1072 fast_pwm_inst\.pwm_counter\[21\]
*1073 fast_pwm_inst\.pwm_counter\[22\]
*1074 fast_pwm_inst\.pwm_counter\[23\]
*1075 fast_pwm_inst\.pwm_counter\[24\]
*1076 fast_pwm_inst\.pwm_counter\[25\]
*1077 fast_pwm_inst\.pwm_counter\[26\]
*1078 fast_pwm_inst\.pwm_counter\[27\]
*1079 fast_pwm_inst\.pwm_counter\[28\]
*1080 fast_pwm_inst\.pwm_counter\[29\]
*1081 fast_pwm_inst\.pwm_counter\[2\]
*1082 fast_pwm_inst\.pwm_counter\[30\]
*1083 fast_pwm_inst\.pwm_counter\[31\]
*1084 fast_pwm_inst\.pwm_counter\[3\]
*1085 fast_pwm_inst\.pwm_counter\[4\]
*1086 fast_pwm_inst\.pwm_counter\[5\]
*1087 fast_pwm_inst\.pwm_counter\[6\]
*1088 fast_pwm_inst\.pwm_counter\[7\]
*1089 fast_pwm_inst\.pwm_counter\[8\]
*1090 fast_pwm_inst\.pwm_counter\[9\]
*1091 fast_pwm_inst\.pwm_outa
*1092 fast_pwm_inst\.pwm_outb
*1093 irq_timer_normal
*1094 net1
*1095 net10
*1096 net100
*1097 net101
*1098 net102
*1099 net11
*1100 net12
*1101 net13
*1102 net14
*1103 net15
*1104 net16
*1105 net17
*1106 net18
*1107 net19
*1108 net2
*1109 net20
*1110 net21
*1111 net22
*1112 net23
*1113 net24
*1114 net25
*1115 net26
*1116 net27
*1117 net28
*1118 net29
*1119 net3
*1120 net30
*1121 net31
*1122 net32
*1123 net33
*1124 net34
*1125 net35
*1126 net36
*1127 net37
*1128 net38
*1129 net39
*1130 net4
*1131 net40
*1132 net41
*1133 net42
*1134 net43
*1135 net44
*1136 net45
*1137 net46
*1138 net47
*1139 net48
*1140 net49
*1141 net5
*1142 net50
*1143 net51
*1144 net52
*1145 net53
*1146 net54
*1147 net55
*1148 net56
*1149 net57
*1150 net58
*1151 net59
*1152 net6
*1153 net60
*1154 net61
*1155 net62
*1156 net63
*1157 net64
*1158 net65
*1159 net66
*1160 net67
*1161 net68
*1162 net69
*1163 net7
*1164 net70
*1165 net71
*1166 net72
*1167 net73
*1168 net74
*1169 net75
*1170 net76
*1171 net77
*1172 net78
*1173 net79
*1174 net8
*1175 net80
*1176 net81
*1177 net82
*1178 net83
*1179 net84
*1180 net85
*1181 net86
*1182 net87
*1183 net88
*1184 net89
*1185 net9
*1186 net90
*1187 net91
*1188 net92
*1189 net93
*1190 net94
*1191 net95
*1192 net96
*1193 net97
*1194 net98
*1195 net99
*1196 normal_mode_inst\.timer_cnt\[0\]
*1197 normal_mode_inst\.timer_cnt\[10\]
*1198 normal_mode_inst\.timer_cnt\[11\]
*1199 normal_mode_inst\.timer_cnt\[12\]
*1200 normal_mode_inst\.timer_cnt\[13\]
*1201 normal_mode_inst\.timer_cnt\[14\]
*1202 normal_mode_inst\.timer_cnt\[15\]
*1203 normal_mode_inst\.timer_cnt\[16\]
*1204 normal_mode_inst\.timer_cnt\[17\]
*1205 normal_mode_inst\.timer_cnt\[18\]
*1206 normal_mode_inst\.timer_cnt\[19\]
*1207 normal_mode_inst\.timer_cnt\[1\]
*1208 normal_mode_inst\.timer_cnt\[20\]
*1209 normal_mode_inst\.timer_cnt\[21\]
*1210 normal_mode_inst\.timer_cnt\[22\]
*1211 normal_mode_inst\.timer_cnt\[23\]
*1212 normal_mode_inst\.timer_cnt\[24\]
*1213 normal_mode_inst\.timer_cnt\[25\]
*1214 normal_mode_inst\.timer_cnt\[26\]
*1215 normal_mode_inst\.timer_cnt\[27\]
*1216 normal_mode_inst\.timer_cnt\[28\]
*1217 normal_mode_inst\.timer_cnt\[29\]
*1218 normal_mode_inst\.timer_cnt\[2\]
*1219 normal_mode_inst\.timer_cnt\[30\]
*1220 normal_mode_inst\.timer_cnt\[31\]
*1221 normal_mode_inst\.timer_cnt\[3\]
*1222 normal_mode_inst\.timer_cnt\[4\]
*1223 normal_mode_inst\.timer_cnt\[5\]
*1224 normal_mode_inst\.timer_cnt\[6\]
*1225 normal_mode_inst\.timer_cnt\[7\]
*1226 normal_mode_inst\.timer_cnt\[8\]
*1227 normal_mode_inst\.timer_cnt\[9\]
*1228 phase_pwm_inst\.counter\[0\]
*1229 phase_pwm_inst\.counter\[10\]
*1230 phase_pwm_inst\.counter\[11\]
*1231 phase_pwm_inst\.counter\[12\]
*1232 phase_pwm_inst\.counter\[13\]
*1233 phase_pwm_inst\.counter\[14\]
*1234 phase_pwm_inst\.counter\[15\]
*1235 phase_pwm_inst\.counter\[16\]
*1236 phase_pwm_inst\.counter\[17\]
*1237 phase_pwm_inst\.counter\[18\]
*1238 phase_pwm_inst\.counter\[19\]
*1239 phase_pwm_inst\.counter\[1\]
*1240 phase_pwm_inst\.counter\[20\]
*1241 phase_pwm_inst\.counter\[21\]
*1242 phase_pwm_inst\.counter\[22\]
*1243 phase_pwm_inst\.counter\[23\]
*1244 phase_pwm_inst\.counter\[24\]
*1245 phase_pwm_inst\.counter\[25\]
*1246 phase_pwm_inst\.counter\[26\]
*1247 phase_pwm_inst\.counter\[27\]
*1248 phase_pwm_inst\.counter\[28\]
*1249 phase_pwm_inst\.counter\[29\]
*1250 phase_pwm_inst\.counter\[2\]
*1251 phase_pwm_inst\.counter\[30\]
*1252 phase_pwm_inst\.counter\[31\]
*1253 phase_pwm_inst\.counter\[3\]
*1254 phase_pwm_inst\.counter\[4\]
*1255 phase_pwm_inst\.counter\[5\]
*1256 phase_pwm_inst\.counter\[6\]
*1257 phase_pwm_inst\.counter\[7\]
*1258 phase_pwm_inst\.counter\[8\]
*1259 phase_pwm_inst\.counter\[9\]
*1260 phase_pwm_inst\.direction
*1261 phase_pwm_inst\.pwm_outa
*1262 phase_pwm_inst\.pwm_outb
*1263 ANTENNA_1
*1264 FILLER_0_111
*1265 FILLER_0_113
*1266 FILLER_0_119
*1267 FILLER_0_127
*1268 FILLER_0_139
*1269 FILLER_0_141
*1270 FILLER_0_147
*1271 FILLER_0_155
*1272 FILLER_0_161
*1273 FILLER_0_167
*1274 FILLER_0_169
*1275 FILLER_0_175
*1276 FILLER_0_188
*1277 FILLER_0_20
*1278 FILLER_0_200
*1279 FILLER_0_209
*1280 FILLER_0_221
*1281 FILLER_0_225
*1282 FILLER_0_233
*1283 FILLER_0_237
*1284 FILLER_0_248
*1285 FILLER_0_253
*1286 FILLER_0_265
*1287 FILLER_0_273
*1288 FILLER_0_279
*1289 FILLER_0_281
*1290 FILLER_0_287
*1291 FILLER_0_301
*1292 FILLER_0_43
*1293 FILLER_0_57
*1294 FILLER_0_65
*1295 FILLER_0_79
*1296 FILLER_0_83
*1297 FILLER_0_85
*1298 FILLER_0_90
*1299 FILLER_0_98
*1300 FILLER_10_114
*1301 FILLER_10_122
*1302 FILLER_10_13
*1303 FILLER_10_131
*1304 FILLER_10_150
*1305 FILLER_10_159
*1306 FILLER_10_17
*1307 FILLER_10_171
*1308 FILLER_10_176
*1309 FILLER_10_188
*1310 FILLER_10_197
*1311 FILLER_10_204
*1312 FILLER_10_214
*1313 FILLER_10_236
*1314 FILLER_10_25
*1315 FILLER_10_260
*1316 FILLER_10_272
*1317 FILLER_10_284
*1318 FILLER_10_29
*1319 FILLER_10_296
*1320 FILLER_10_37
*1321 FILLER_10_46
*1322 FILLER_10_57
*1323 FILLER_10_66
*1324 FILLER_10_80
*1325 FILLER_10_85
*1326 FILLER_10_91
*1327 FILLER_10_95
*1328 FILLER_10_99
*1329 FILLER_11_107
*1330 FILLER_11_111
*1331 FILLER_11_116
*1332 FILLER_11_128
*1333 FILLER_11_13
*1334 FILLER_11_136
*1335 FILLER_11_141
*1336 FILLER_11_169
*1337 FILLER_11_175
*1338 FILLER_11_179
*1339 FILLER_11_191
*1340 FILLER_11_202
*1341 FILLER_11_213
*1342 FILLER_11_221
*1343 FILLER_11_225
*1344 FILLER_11_237
*1345 FILLER_11_241
*1346 FILLER_11_25
*1347 FILLER_11_252
*1348 FILLER_11_264
*1349 FILLER_11_268
*1350 FILLER_11_281
*1351 FILLER_11_293
*1352 FILLER_11_301
*1353 FILLER_11_37
*1354 FILLER_11_41
*1355 FILLER_11_45
*1356 FILLER_11_53
*1357 FILLER_11_57
*1358 FILLER_11_71
*1359 FILLER_11_83
*1360 FILLER_11_95
*1361 FILLER_12_116
*1362 FILLER_12_141
*1363 FILLER_12_162
*1364 FILLER_12_170
*1365 FILLER_12_187
*1366 FILLER_12_195
*1367 FILLER_12_22
*1368 FILLER_12_220
*1369 FILLER_12_237
*1370 FILLER_12_246
*1371 FILLER_12_253
*1372 FILLER_12_257
*1373 FILLER_12_269
*1374 FILLER_12_281
*1375 FILLER_12_287
*1376 FILLER_12_29
*1377 FILLER_12_299
*1378 FILLER_12_3
*1379 FILLER_12_307
*1380 FILLER_12_61
*1381 FILLER_12_9
*1382 FILLER_12_91
*1383 FILLER_13_111
*1384 FILLER_13_121
*1385 FILLER_13_126
*1386 FILLER_13_134
*1387 FILLER_13_139
*1388 FILLER_13_147
*1389 FILLER_13_152
*1390 FILLER_13_164
*1391 FILLER_13_179
*1392 FILLER_13_191
*1393 FILLER_13_203
*1394 FILLER_13_218
*1395 FILLER_13_222
*1396 FILLER_13_228
*1397 FILLER_13_240
*1398 FILLER_13_248
*1399 FILLER_13_260
*1400 FILLER_13_272
*1401 FILLER_13_301
*1402 FILLER_13_33
*1403 FILLER_13_46
*1404 FILLER_13_54
*1405 FILLER_13_57
*1406 FILLER_13_71
*1407 FILLER_13_86
*1408 FILLER_13_99
*1409 FILLER_14_107
*1410 FILLER_14_128
*1411 FILLER_14_15
*1412 FILLER_14_169
*1413 FILLER_14_175
*1414 FILLER_14_181
*1415 FILLER_14_192
*1416 FILLER_14_203
*1417 FILLER_14_208
*1418 FILLER_14_220
*1419 FILLER_14_229
*1420 FILLER_14_235
*1421 FILLER_14_245
*1422 FILLER_14_253
*1423 FILLER_14_265
*1424 FILLER_14_27
*1425 FILLER_14_275
*1426 FILLER_14_283
*1427 FILLER_14_29
*1428 FILLER_14_3
*1429 FILLER_14_39
*1430 FILLER_14_44
*1431 FILLER_14_56
*1432 FILLER_14_67
*1433 FILLER_14_76
*1434 FILLER_14_85
*1435 FILLER_15_108
*1436 FILLER_15_143
*1437 FILLER_15_15
*1438 FILLER_15_155
*1439 FILLER_15_167
*1440 FILLER_15_169
*1441 FILLER_15_173
*1442 FILLER_15_178
*1443 FILLER_15_185
*1444 FILLER_15_191
*1445 FILLER_15_198
*1446 FILLER_15_205
*1447 FILLER_15_211
*1448 FILLER_15_222
*1449 FILLER_15_228
*1450 FILLER_15_259
*1451 FILLER_15_281
*1452 FILLER_15_295
*1453 FILLER_15_307
*1454 FILLER_15_32
*1455 FILLER_15_40
*1456 FILLER_15_51
*1457 FILLER_15_55
*1458 FILLER_15_57
*1459 FILLER_15_66
*1460 FILLER_15_7
*1461 FILLER_15_93
*1462 FILLER_16_10
*1463 FILLER_16_105
*1464 FILLER_16_120
*1465 FILLER_16_133
*1466 FILLER_16_139
*1467 FILLER_16_141
*1468 FILLER_16_170
*1469 FILLER_16_182
*1470 FILLER_16_190
*1471 FILLER_16_194
*1472 FILLER_16_242
*1473 FILLER_16_250
*1474 FILLER_16_253
*1475 FILLER_16_265
*1476 FILLER_16_275
*1477 FILLER_16_283
*1478 FILLER_16_296
*1479 FILLER_16_303
*1480 FILLER_16_44
*1481 FILLER_16_52
*1482 FILLER_16_61
*1483 FILLER_16_95
*1484 FILLER_17_101
*1485 FILLER_17_109
*1486 FILLER_17_121
*1487 FILLER_17_138
*1488 FILLER_17_15
*1489 FILLER_17_152
*1490 FILLER_17_164
*1491 FILLER_17_169
*1492 FILLER_17_179
*1493 FILLER_17_191
*1494 FILLER_17_198
*1495 FILLER_17_206
*1496 FILLER_17_269
*1497 FILLER_17_27
*1498 FILLER_17_277
*1499 FILLER_17_281
*1500 FILLER_17_3
*1501 FILLER_17_39
*1502 FILLER_17_49
*1503 FILLER_17_55
*1504 FILLER_17_57
*1505 FILLER_17_65
*1506 FILLER_17_79
*1507 FILLER_17_85
*1508 FILLER_17_93
*1509 FILLER_18_115
*1510 FILLER_18_123
*1511 FILLER_18_133
*1512 FILLER_18_139
*1513 FILLER_18_153
*1514 FILLER_18_157
*1515 FILLER_18_161
*1516 FILLER_18_17
*1517 FILLER_18_173
*1518 FILLER_18_184
*1519 FILLER_18_206
*1520 FILLER_18_218
*1521 FILLER_18_224
*1522 FILLER_18_228
*1523 FILLER_18_233
*1524 FILLER_18_237
*1525 FILLER_18_245
*1526 FILLER_18_25
*1527 FILLER_18_251
*1528 FILLER_18_262
*1529 FILLER_18_287
*1530 FILLER_18_299
*1531 FILLER_18_307
*1532 FILLER_18_36
*1533 FILLER_18_47
*1534 FILLER_18_61
*1535 FILLER_18_69
*1536 FILLER_18_7
*1537 FILLER_18_80
*1538 FILLER_18_85
*1539 FILLER_18_91
*1540 FILLER_19_101
*1541 FILLER_19_107
*1542 FILLER_19_111
*1543 FILLER_19_113
*1544 FILLER_19_125
*1545 FILLER_19_137
*1546 FILLER_19_145
*1547 FILLER_19_167
*1548 FILLER_19_189
*1549 FILLER_19_213
*1550 FILLER_19_228
*1551 FILLER_19_240
*1552 FILLER_19_252
*1553 FILLER_19_272
*1554 FILLER_19_276
*1555 FILLER_19_293
*1556 FILLER_19_299
*1557 FILLER_19_303
*1558 FILLER_19_33
*1559 FILLER_19_55
*1560 FILLER_19_64
*1561 FILLER_19_76
*1562 FILLER_1_105
*1563 FILLER_1_111
*1564 FILLER_1_113
*1565 FILLER_1_12
*1566 FILLER_1_121
*1567 FILLER_1_152
*1568 FILLER_1_158
*1569 FILLER_1_166
*1570 FILLER_1_209
*1571 FILLER_1_220
*1572 FILLER_1_228
*1573 FILLER_1_232
*1574 FILLER_1_24
*1575 FILLER_1_264
*1576 FILLER_1_276
*1577 FILLER_1_281
*1578 FILLER_1_293
*1579 FILLER_1_299
*1580 FILLER_1_3
*1581 FILLER_1_36
*1582 FILLER_1_48
*1583 FILLER_1_57
*1584 FILLER_1_69
*1585 FILLER_1_81
*1586 FILLER_1_93
*1587 FILLER_20_101
*1588 FILLER_20_109
*1589 FILLER_20_113
*1590 FILLER_20_125
*1591 FILLER_20_13
*1592 FILLER_20_131
*1593 FILLER_20_137
*1594 FILLER_20_141
*1595 FILLER_20_149
*1596 FILLER_20_174
*1597 FILLER_20_183
*1598 FILLER_20_195
*1599 FILLER_20_197
*1600 FILLER_20_22
*1601 FILLER_20_233
*1602 FILLER_20_241
*1603 FILLER_20_276
*1604 FILLER_20_280
*1605 FILLER_20_3
*1606 FILLER_20_38
*1607 FILLER_20_50
*1608 FILLER_20_59
*1609 FILLER_20_67
*1610 FILLER_20_78
*1611 FILLER_20_85
*1612 FILLER_20_9
*1613 FILLER_20_97
*1614 FILLER_21_111
*1615 FILLER_21_126
*1616 FILLER_21_13
*1617 FILLER_21_148
*1618 FILLER_21_156
*1619 FILLER_21_167
*1620 FILLER_21_179
*1621 FILLER_21_185
*1622 FILLER_21_194
*1623 FILLER_21_202
*1624 FILLER_21_212
*1625 FILLER_21_217
*1626 FILLER_21_223
*1627 FILLER_21_225
*1628 FILLER_21_276
*1629 FILLER_21_281
*1630 FILLER_21_289
*1631 FILLER_21_35
*1632 FILLER_21_44
*1633 FILLER_21_49
*1634 FILLER_21_55
*1635 FILLER_21_65
*1636 FILLER_21_72
*1637 FILLER_21_84
*1638 FILLER_21_95
*1639 FILLER_22_104
*1640 FILLER_22_108
*1641 FILLER_22_120
*1642 FILLER_22_128
*1643 FILLER_22_135
*1644 FILLER_22_139
*1645 FILLER_22_141
*1646 FILLER_22_149
*1647 FILLER_22_15
*1648 FILLER_22_155
*1649 FILLER_22_166
*1650 FILLER_22_188
*1651 FILLER_22_200
*1652 FILLER_22_225
*1653 FILLER_22_23
*1654 FILLER_22_237
*1655 FILLER_22_249
*1656 FILLER_22_253
*1657 FILLER_22_257
*1658 FILLER_22_278
*1659 FILLER_22_282
*1660 FILLER_22_29
*1661 FILLER_22_3
*1662 FILLER_22_35
*1663 FILLER_22_88
*1664 FILLER_23_111
*1665 FILLER_23_125
*1666 FILLER_23_136
*1667 FILLER_23_142
*1668 FILLER_23_15
*1669 FILLER_23_166
*1670 FILLER_23_169
*1671 FILLER_23_176
*1672 FILLER_23_188
*1673 FILLER_23_200
*1674 FILLER_23_212
*1675 FILLER_23_232
*1676 FILLER_23_261
*1677 FILLER_23_27
*1678 FILLER_23_273
*1679 FILLER_23_279
*1680 FILLER_23_3
*1681 FILLER_23_300
*1682 FILLER_23_39
*1683 FILLER_23_51
*1684 FILLER_23_55
*1685 FILLER_23_57
*1686 FILLER_23_66
*1687 FILLER_23_78
*1688 FILLER_23_90
*1689 FILLER_23_99
*1690 FILLER_24_103
*1691 FILLER_24_111
*1692 FILLER_24_117
*1693 FILLER_24_141
*1694 FILLER_24_175
*1695 FILLER_24_18
*1696 FILLER_24_190
*1697 FILLER_24_206
*1698 FILLER_24_212
*1699 FILLER_24_219
*1700 FILLER_24_234
*1701 FILLER_24_24
*1702 FILLER_24_249
*1703 FILLER_24_256
*1704 FILLER_24_268
*1705 FILLER_24_280
*1706 FILLER_24_284
*1707 FILLER_24_288
*1708 FILLER_24_296
*1709 FILLER_24_32
*1710 FILLER_24_38
*1711 FILLER_24_50
*1712 FILLER_24_58
*1713 FILLER_24_68
*1714 FILLER_24_7
*1715 FILLER_24_80
*1716 FILLER_24_88
*1717 FILLER_24_96
*1718 FILLER_25_103
*1719 FILLER_25_113
*1720 FILLER_25_123
*1721 FILLER_25_131
*1722 FILLER_25_155
*1723 FILLER_25_166
*1724 FILLER_25_169
*1725 FILLER_25_177
*1726 FILLER_25_185
*1727 FILLER_25_191
*1728 FILLER_25_199
*1729 FILLER_25_216
*1730 FILLER_25_232
*1731 FILLER_25_258
*1732 FILLER_25_267
*1733 FILLER_25_271
*1734 FILLER_25_275
*1735 FILLER_25_279
*1736 FILLER_25_3
*1737 FILLER_25_41
*1738 FILLER_25_49
*1739 FILLER_25_55
*1740 FILLER_26_102
*1741 FILLER_26_108
*1742 FILLER_26_120
*1743 FILLER_26_133
*1744 FILLER_26_139
*1745 FILLER_26_141
*1746 FILLER_26_146
*1747 FILLER_26_152
*1748 FILLER_26_176
*1749 FILLER_26_189
*1750 FILLER_26_19
*1751 FILLER_26_195
*1752 FILLER_26_197
*1753 FILLER_26_209
*1754 FILLER_26_227
*1755 FILLER_26_237
*1756 FILLER_26_253
*1757 FILLER_26_257
*1758 FILLER_26_27
*1759 FILLER_26_288
*1760 FILLER_26_29
*1761 FILLER_26_294
*1762 FILLER_26_41
*1763 FILLER_26_53
*1764 FILLER_26_62
*1765 FILLER_26_66
*1766 FILLER_26_7
*1767 FILLER_26_74
*1768 FILLER_26_82
*1769 FILLER_26_85
*1770 FILLER_26_97
*1771 FILLER_27_108
*1772 FILLER_27_113
*1773 FILLER_27_121
*1774 FILLER_27_133
*1775 FILLER_27_147
*1776 FILLER_27_159
*1777 FILLER_27_163
*1778 FILLER_27_167
*1779 FILLER_27_169
*1780 FILLER_27_181
*1781 FILLER_27_19
*1782 FILLER_27_191
*1783 FILLER_27_203
*1784 FILLER_27_208
*1785 FILLER_27_213
*1786 FILLER_27_233
*1787 FILLER_27_245
*1788 FILLER_27_257
*1789 FILLER_27_263
*1790 FILLER_27_269
*1791 FILLER_27_28
*1792 FILLER_27_281
*1793 FILLER_27_285
*1794 FILLER_27_306
*1795 FILLER_27_39
*1796 FILLER_27_51
*1797 FILLER_27_55
*1798 FILLER_27_57
*1799 FILLER_27_61
*1800 FILLER_27_7
*1801 FILLER_27_74
*1802 FILLER_27_90
*1803 FILLER_27_96
*1804 FILLER_28_100
*1805 FILLER_28_11
*1806 FILLER_28_113
*1807 FILLER_28_125
*1808 FILLER_28_137
*1809 FILLER_28_141
*1810 FILLER_28_153
*1811 FILLER_28_161
*1812 FILLER_28_165
*1813 FILLER_28_170
*1814 FILLER_28_182
*1815 FILLER_28_194
*1816 FILLER_28_220
*1817 FILLER_28_229
*1818 FILLER_28_23
*1819 FILLER_28_241
*1820 FILLER_28_249
*1821 FILLER_28_256
*1822 FILLER_28_27
*1823 FILLER_28_288
*1824 FILLER_28_3
*1825 FILLER_28_303
*1826 FILLER_28_307
*1827 FILLER_28_36
*1828 FILLER_28_52
*1829 FILLER_28_82
*1830 FILLER_28_88
*1831 FILLER_29_102
*1832 FILLER_29_108
*1833 FILLER_29_113
*1834 FILLER_29_140
*1835 FILLER_29_148
*1836 FILLER_29_16
*1837 FILLER_29_166
*1838 FILLER_29_177
*1839 FILLER_29_192